
 OpenBabel05180621103D

 14  0  0  0  0  0  0  0  0  0999 V2000
   -1.3684    2.4542    0.0000 H   0  0  0  0  0
   -1.9679    1.0461    0.8845 H   0  0  0  0  0
   -1.9679    1.0461   -0.8845 H   0  0  0  0  0
   -1.4073    1.3612    0.0000 C   0  0  0  0  0
    0.5430    1.1282    0.8780 H   0  0  0  0  0
    0.5430    1.1282   -0.8780 H   0  0  0  0  0
    0.0000    0.7641    0.0000 C   0  0  0  0  0
   -0.5502   -1.1185   -0.8776 H   0  0  0  0  0
   -0.5502   -1.1185    0.8776 H   0  0  0  0  0
    0.0018   -0.7658    0.0000 C   0  0  0  0  0
    1.3723   -2.4556    0.0000 H   0  0  0  0  0
    1.9665   -1.0456    0.8838 H   0  0  0  0  0
    1.9665   -1.0456   -0.8838 H   0  0  0  0  0
    1.4078   -1.3627    0.0000 C   0  0  0  0  0
M  END
